* PSpice Model Editor - Version 9.2
*-------------------------------------------------------------------------------
* Olivier Trescases & Anas Hamoui
* - - - - - - - - - - - - - - - - - - - - - - - - - - - - - - - - - - - - - -
*
*$
* 		Model for 1N4148 Diode (from EVAL library in PSpice)
.model D1N4148  D(Is=2.682n N=1.836 Rs=.5664 Ikf=44.17m Xti=3 Eg=1.11 Cjo=4p
+               M=.3333 Vj=.5 Fc=.5 Isr=1.565n Nr=2 Bv=100 Ibv=100u Tt=11.54n)
*$
* Model for Zener Diode (used in Chapter 3)
.SUBCKT zener_diode 1 2
*connections:       | |
*	       andode |
*		cathode
Dforward 1 2 1mA_diode
Dreverse 2 4 ideal_diode
Vz0 4 3 DC 4.9V
Rz 1 3 10
* diode model statements
.model 1mA_diode D (Is=100pA n=1.679)
.model ideal_diode D (Is=100pA n=0.01)
.ends zener_diode
*$
* 		Model for diodo_ideale
.model diodo_ideale  D (Is=1e-14 n=1u Vj=1u)
*$
* 		Model for diodo
.model diodo  D (Is=1e-14 Cjo=.1pF Rs=.1 n=1u Vj=1u)
*$
