* VALORI INDICATIVI PER FARE CONTI CON CARTA E PENNA:
* NMOS :  KP=110 [UA/V^2] VE=18.3 [V/UM]
* PMOS :  KN=32 [UA/V^2]  VE=14.6 [V/UM]
*
*$
.MODEL AMSn NMOS(Level=2 CGSO=0.350E-09 CGDO=0.350E-09
+		CGBO=5.50E-11 CJ=0.310E-03 MJ=0.460E+00
+		CJSW=0.210E-09 MJSW=0.160E+00 JS=0.50E-03
+		PB=0.80E+00 RSH=20.00E+00 TOX=15.50E-09
+		XJ=0.080E-06 LD=0.05E-06 WD=5.50E-07
+		VTO=0.77E+00 NSUB=53.50E+15 NFS=0.835E+12
+		NEFF=10.00E+00 UO=500.0E+00 UCRIT=37.70E+04
+		UEXP=0.324E+00 UTRA=0.000E+00 VMAX=61.90E+03
+		DELTA=0.237E+00 KF=0.276E-25 AF=1.530E+00)

*$
.MODEL AMSp PMOS(Level=2 CGSO=0.350E-09 CGDO=0.350E-09
+		CGBO=5.50E-11 CJ=0.40E-03 MJ=0.50E+00
+		CJSW=0.350E-09 MJSW=0.220E+00 JS=0.20E-03
+		PB=0.800E+00 RSH=55.00E+00 TOX=15.50E-09
+		XJ=0.087E-06 LD=-.125E-06 WD=0.35E-06
+		VTO=-.810E+00 NSUB=37.50E+15 NFS=0.483E+12
+		NEFF=2.570E+00 UO=145.0E+00 UCRIT=30.80E+04
+		UEXP=0.336E+00 UTRA=0.000E+00 VMAX=61.30E+03
+		DELTA=0.949E+00 KF=0.466E-26 AF=1.610E+00)

*$

