** Profile: "GmC-Filt-1stLPF-VkVar"  [ C:\Users\FraH\Desktop\Gm-C_Filters\01-GmC_Filters\ota_applications-pspicefiles\gmc-filt\1stlpf-vkvar.sim ] 

** Creating circuit file "1stLPF-VkVar.cir" 
** WARNING: THIS AUTOMATICALLY GENERATED FILE MAY BE OVERWRITTEN BY SUBSEQUENT SIMULATIONS

*Libraries: 
* Profile Libraries :
* Local Libraries :
.LIB "../../../ota_applications-pspicefiles/ota_applications.lib" 
* From [PSPICE NETLIST] section of C:\Users\FraH\AppData\Roaming\SPB_Data\cdssetup\OrCAD_PSpice\17.2.0\PSpice.ini file:
.lib "C:\Cadence\SPB_17.2\tools\capture\library\LibrerieMatarr\diodi.lib" 
.lib "C:\Cadence\SPB_17.2\tools\capture\library\LibrerieMatarr\base.lib" 
.lib "C:\Cadence\SPB_17.2\tools\capture\library\LibrerieProgAutom\an35.lib" 
.lib "C:\Cadence\SPB_17.2\tools\capture\library\LibrerieProgAutom\ams.lib" 
.lib "nomd.lib" 

*Analysis directives: 
.AC DEC 100 10k 0.1G
.OP
.STEP LIN V_V11 -3.9 -1.6 0.46 
.OPTIONS ADVCONV
.PROBE64 V(alias(*)) I(alias(*)) W(alias(*)) D(alias(*)) NOISE(alias(*)) 
.INC "..\GmC-Filt.net" 


.END
